[General]
network = networks.qsdc_network
sim-time-limit = 10s

*.logger.log_filename = "qsdc_starter.log"

# === Payload and Phase Error Rates ===
*.source.app.payload = "hello world"
*.source.app.phase1_max_error_rate = 0.1
*.source.app.phase2_max_error_rate = 0.1

**.buffers = 256 

**.qnic*.num_buffer = 256
**.qnic_r*.num_buffer = 256

*.source.app.expected_bsms = 1
*.target.app.expected_bsms = 1

**.custom_channel_loss_rate = 0.1
*source.app.custom_measurement_error_rate = 0.0
**.custom_gate_error_rate = 0.0

**.source.app.secret_message = "I love you"

*.requestedPairs = 256
*.source.app.number_of_bellpair = 256
*.server.app.number_of_bellpair = 5
*.BSArepeater*.app.number_of_bellpair = 5
*.target.app.number_of_bellpair = 5
*.source.app.min_pairs_to_start = 256

# === Phase 1 Configuration ===
*.source.app.sample_target = 64
*.source.app.sample_block_size = 8

# === Phase 2 Configuration ===
*.source.app.bell_sample_target = 64
*.source.app.bell_block_size = 8

# === Eve Configuration ===
*.source.app.eve_enabled = true
*.source.app.eve_intercept_probability = 0.25

# === Timings and Protocol State ===
**.EndToEndConnection = true
**.initial_notification_timing_buffer = 0s

# INI topological mapping
*.source.app.is_source = true
*.target.app.is_target = true
*.BSArepeater*.app.is_repeater = true
*.BSArepeater*.app.burn_count = 0
*.target.app.burn_count = 0
*.server.app.burn_count = 0
*.server.app.is_server = true
*.server.app.is_test = true

*.source.app.start_delay = 50us
*.source.app.poll_interval = 10us
*.source.app.sample_interval = 10us
*.source.app.expect_anti = false
*.source.app.burn_count = 0

# === Hardware / Error Modeling ===
**.qrsa.hm.link_tomography = false
**.qrsa.hm.initial_purification = 0
**.qrsa.hm.purification_type = "none"

**.memory_x_error_rate = 0
**.memory_y_error_rate = 0
**.memory_z_error_rate = 0
**.memory_energy_excitation_rate = 0
**.memory_energy_relaxation_rate = 0
**.memory_completely_mixed_rate = 0

**.measurement_x_err_rate = 0
**.measurement_y_err_rate = 0
**.measurement_z_err_rate = 0

**.h_gate_err_rate = 0
**.h_gate_x_err_ratio = 0
**.h_gate_y_err_ratio = 0
**.h_gate_z_err_ratio = 0

**.x_gate_err_rate = 0
**.x_gate_x_err_ratio = 0
**.x_gate_y_err_ratio = 0
**.x_gate_z_err_ratio = 0

**.z_gate_err_rate = 0
**.z_gate_x_err_ratio = 0
**.z_gate_y_err_ratio = 0
**.z_gate_z_err_ratio = 0

**.cnot_gate_err_rate = 0

seed-set = ${repetition}
