[General]
network = networks.qsdc_network
sim-time-limit = 10s

*.logger.log_filename = "qsdc_starter.log"

*.server*.buffers = 4
*.source*.buffers = 4096
*.target*.buffers = 4096
*.BSArepeater*.buffers = 4

**.custom_channel_loss_rate = 0.0
**.custom_measurement_error_rate = 0.0
**.custom_gate_error_rate = 0.0

**.source.app.secret_message = "WWWWWWWWWWWWWW"

**.targeted_attack_start = 50
**.targeted_attack_end = 80
**.deterministic_bsm_shift = 1

**.binary_verification = false

# === Timings and Protocol State ===
**.EndToEndConnection = true
**.initial_notification_timing_buffer = 0s

# INI topological mapping
*.source.app.is_source = true
*.target.app.is_target = true
*.BSArepeater*.app.is_repeater = true
*.server.app.is_server = true

*.BSArepeater1.app.is_eavesdropper = true
*.BSArepeater1.app.chosen_attacks = 4
*.BSArepeater1.app.randomized_malicious_entanglement_attack = false
*.BSArepeater1.app.entanglement_attack_rate = 0.2

**.app.burn_count = 0
**.app.start_delay = 50us
**.app.poll_interval = 10us
**.app.sample_interval = 10us
**.app.expect_anti = false

# === Hardware / Error Modeling ===
**.qrsa.hm.link_tomography = false
**.qrsa.hm.initial_purification = 0
**.qrsa.hm.purification_type = "none"

**.memory_x_error_rate = 0
**.memory_y_error_rate = 0
**.memory_z_error_rate = 0
**.memory_energy_excitation_rate = 0
**.memory_energy_relaxation_rate = 0
**.memory_completely_mixed_rate = 0

**.measurement_x_err_rate = 0
**.measurement_y_err_rate = 0
**.measurement_z_err_rate = 0

**.h_gate_err_rate = 0
**.h_gate_x_err_ratio = 0
**.h_gate_y_err_ratio = 0
**.h_gate_z_err_ratio = 0

**.x_gate_err_rate = 0
**.x_gate_x_err_ratio = 0
**.x_gate_y_err_ratio = 0
**.x_gate_z_err_ratio = 0

**.z_gate_err_rate = 0
**.z_gate_x_err_ratio = 0
**.z_gate_y_err_ratio = 0
**.z_gate_z_err_ratio = 0

**.cnot_gate_err_rate = 0

seed-set = ${repetition}
