[General]

network = networks.Simple_MIM

seed-set = ${runnumber}   # this is the default =0 results in the same seed every time
sim-time-limit = 100s
# Qnic
#**.buffers = intuniform(7,7)
image-path = "./quisp/images"
**.logger.log_filename = "./results.jsonl"

**.h_gate_error_rate = 1/2000
**.h_gate_x_error_ratio = 0
**.h_gate_y_error_ratio = 0
**.h_gate_z_error_ratio = 0

**.Measurement_error_rate = 1/2000
**.Measurement_x_error_ratio = 1
**.Measurement_y_error_ratio = 1
**.Measurement_z_error_ratio = 1

**.x_gate_error_rate = 1/2000
**.x_gate_x_error_ratio = 0
**.x_gate_y_error_ratio = 0
**.x_gate_z_error_ratio = 0

**.z_gate_error_rate = 1/2000
**.z_gate_x_error_ratio = 0
**.z_gate_y_error_ratio = 0
**.z_gate_z_error_ratio = 0


#Error on Target, Error on Controlled
**.cnot_gate_error_rate = 1/2000
**.cnot_gate_iz_error_ratio = 1 #checked
**.cnot_gate_zi_error_ratio = 1 #checked
**.cnot_gate_zz_error_ratio = 1 #checked
**.cnot_gate_ix_error_ratio = 1 #checked
**.cnot_gate_xi_error_ratio = 1 #checked
**.cnot_gate_xx_error_ratio = 1 #checked
**.cnot_gate_iy_error_ratio = 1 #checked
**.cnot_gate_yi_error_ratio = 1 #checked
**.cnot_gate_yy_error_ratio = 1 #checked


**.memory_x_error_rate = 1.11111111e-7
**.memory_y_error_rate = 1.11111111e-7
**.memory_z_error_rate = 1.11111111e-7
**.memory_energy_excitation_rate = 0.000198
**.memory_energy_relaxation_rate = 0.00000198
**.memory_completely_mixed_rate = 0


**.initial_notification_timing_buffer = 10 s #when to start the BSA timing notification.
**.TrafficPattern = 1
**.LoneInitiatorAddress = 1

# BSA parameter
**.collection_efficiency = 1
**.darkcount_probability = 10e-8 # 10/s * 10^-9
**.detection_efficiency = 1
**.indistinguishable_time_window = 1.5ns # Schuck et al., PRL 96,
**.photon_detection_per_second = 1000000000


sim-time-limit = 100s
seed-set = 1
**.number_of_bellpair = 7000
**.buffers = 100

**.tomography_output_filename = ""


**.emission_success_probability = 1

**.Measurement_error_rate = 0
**.Measurement_x_error_ratio = 0
**.Measurement_y_error_ratio = 0
**.Measurement_z_error_ratio = 0


# Error on optical qubit in a channel
**.channel_loss_rate = 0 # per km. 1 - 10^(-0.2/10)
**.channel_x_error_rate = 0
**.channel_z_error_rate = 0
**.channel_y_error_rate = 0

**.memory_x_error_rate = 0
**.memory_y_error_rate = 0
**.memory_z_error_rate = 0
**.memory_energy_excitation_rate = 0
**.memory_energy_relaxation_rate = 0
**.memory_completely_mixed_rate = 0

**.EndToEndConnection = true
# Which traffic pattern?
# 1 = single connection from Node 1 to a random location in the network
# 2 = every node selects a random partner
**.TrafficPattern = 1
**.link_tomography = false
**.NumberOfResources = 1
**.initial_purification = 1
**.purification_type = "SINGLE_SELECTION_X_PURIFICATION"

